/*--------------------------------*- C++ -*----------------------------------*\
  =========                 |
  \\      /  F ield         | OpenFOAM: The Open Source CFD Toolbox
   \\    /   O peration     | Website:  https://openfoam.org
    \\  /    A nd           | Version:  9
     \\/     M anipulation  |
\*---------------------------------------------------------------------------*/
FoamFile
{
    format      ascii;
    class       volScalarField;
    object      p;
}
// * * * * * * * * * * * * * * * * * * * * * * * * * * * * * * * * * * * * * //

dimensions      [0 2 -2 0 0 0 0];

internalField   uniform 0;

boundaryField
{
    inlet
    {
        type            zeroGradient;
    }

    outlet
    {
        type            totalPressure;
        p0              uniform 0;
        value           uniform 0;
    }

    ground
    {
        type            empty;//zeroGradient;
    }

    top
    {
        type            empty;//zeroGradient;
    }
	
	front
    {
        type            totalPressure;
        p0              uniform 0;
        value           uniform 0;
    }
	
	back
    {
        type            totalPressure;
        p0              uniform 0;
        value           uniform 0;
    }
	
	

    #includeEtc "caseDicts/setConstraintTypes"
}

// ************************************************************************* //
