/*--------------------------------*- C++ -*----------------------------------*\
  =========                 |
  \\      /  F ield         | OpenFOAM: The Open Source CFD Toolbox
   \\    /   O peration     | Website:  https://openfoam.org
    \\  /    A nd           | Version:  11
     \\/     M anipulation  |
\*---------------------------------------------------------------------------*/
FoamFile
{
    format      ascii;
    class       volScalarField;
    location    "0";
    object      k;
}
// * * * * * * * * * * * * * * * * * * * * * * * * * * * * * * * * * * * * * //

dimensions      [0 2 -2 0 0 0 0];

internalField   uniform 0.375;

boundaryField
{
    inlet
    {
        type            fixedValue;
        value           uniform 0.375;
    }
    outlet
    {
        type            zeroGradient;
    }
    top
    {
        type            empty;
    }
    ground
    {
        type            empty;
    }
    front
    {
        type            inletOutlet;
        inletValue      uniform 0.375;
        value           uniform 0.375;
    }
	
	back
    {
        type            inletOutlet;
        inletValue      uniform 0.375;
        value           uniform 0.375;
    }
}


// ************************************************************************* //
