/*--------------------------------*- C++ -*----------------------------------*\
  =========                 |
  \\      /  F ield         | OpenFOAM: The Open Source CFD Toolbox
   \\    /   O peration     | Website:  https://openfoam.org
    \\  /    A nd           | Version:  11
     \\/     M anipulation  |
\*---------------------------------------------------------------------------*/
FoamFile
{
    format      ascii;
    class       polyBoundaryMesh;
    location    "constant/polyMesh";
    object      boundary;
}
// * * * * * * * * * * * * * * * * * * * * * * * * * * * * * * * * * * * * * //

6
(
    inlet
    {
        type            patch;
        nFaces          100;
        startFace       19800;
    }
    outlet
    {
        type            patch;
        nFaces          100;
        startFace       19900;
    }
    ground
    {
        type            empty;
        inGroups        List<word> 1(empty);
        nFaces          10000;
        startFace       20000;
    }
    top
    {
        type            empty;
        inGroups        List<word> 1(empty);
        nFaces          10000;
        startFace       30000;
    }
    front
    {
        type            patch;
        nFaces          100;
        startFace       40000;
    }
    back
    {
        type            patch;
        nFaces          100;
        startFace       40100;
    }
)

// ************************************************************************* //
